* 1 BIT FULL ADDER TESTER, a=clk1, b=clk2, c=clk3

X1BFA clk1 clk2 clk3 sum carry FA
.tran 200ns
.plot clk1
.plot clk2
.plot clk3
.plot sum
.plot carry